12
Optomised by Molcas Ruben
 O     0.12198853     1.31712270    -0.08847757
 N     1.19980267    -0.92539440    -0.22757437
 C     0.01873425    -0.03436583    -0.08285476
 C     2.55727931    -0.19805892    -0.00797170
 C    -1.39476430    -0.82964557    -0.00405440
 H     1.08641094    -1.87925302     0.28778835
 H     3.43882434    -0.97352196    -0.19098138
 H    -2.26175382    -0.02527194    -0.03611490
 H    -1.48721863    -1.56461065    -0.92726918
 H    -1.46188399    -1.44485245     1.00489819
 H     2.62273961     0.67981014    -0.80515639
 H     2.65287410     0.28310191     1.07779010
 
